LAMMPS (16 Mar 2018)
## For testing OCTP 2.0 quickly (copied and adjusted from an SI of Sayeds paper)
boundary p p p
units lj
atom_style molecular

#################### VARIABLES ####################
variable COEF equal (1)                             # A multiplier for the number of particles
variable mol1 equal (250*1)
variable mol2 equal (500*1-250)

variable s11 equal 1.0                              # sigma 11
variable s22 equal 1.2                              # sigma 22
variable s12 equal (1+1.2)/2.0
variable mas1 equal 1.0                             # mass of particle 1
variable mas2 equal (1*(1.2/1)^3)
variable e11 equal 1.0                              # epsilon 11
variable e22 equal 0.8                              # epsilon 22
variable e12 equal sqrt(1*0.8)*(1.0-(-0.3))
variable rcut equal 4.0                             # cutoff radius
variable skin equal 0.5                             # verlet list parameters
variable checkbin equal 2                           # verlet list parameters

variable temp equal 0.65                            # reduced external temperature (T*)
variable volum equal 790.0560*1
variable box equal (790.056^(1.0/3.0))
variable Etotal equal -5.13404                      # Total energy of system per atom
variable dt equal 0.001                             # timestep (t*)
variable Nf equal 10000                             # frequency of sampling
variable nininvt equal 200000                       # initializing in NVT (2 damping rates)
variable nsamnvt equal 1000000                      # sampling energy in NVT
variable nrun equal 5000000                         # production in NVE

variable nb equal 10                                # Number of blocks (fix ordern)
variable nbe equal 20                               # Number of block elements (fix ordern)
variable Nvisc equal 5                              # Nevery for viscosity (fix ordern: sample data at (Nvisc*2))
variable Ncond equal 5                              # Nevery for Tconductivity (fix ordern: sample data at (Ncond*2))
variable Ndiff equal 1000                           # Nevery for diffusivity (fix ordern: sample data at (Ndiff))
variable Nwrit equal 100000                         # Nwrite for transport properties (fix ordern: write every (Nwrit))

variable random_V equal 2234                        # the random seed to initialize velocities
variable random_m1 equal 223                        # the random seed to create LJ species 1
variable random_m2 equal 235                        # the random seed to create LJ species 2

thermo 10000

#################### FORCE FIELDS ####################
region region1 block 0 9.24455389177073 0 9.24455389177073 0 9.24455389177073
create_box 2 region1
Created orthogonal box = (0 0 0) to (9.24455 9.24455 9.24455)
mass 1 1
mass 2 1.728
create_atoms 1 random 250 223 NULL
Created 250 atoms
  Time spent = 0.00467925 secs
create_atoms 2 random 250 235 NULL
Created 250 atoms
  Time spent = 5.1233e-05 secs
pair_style lj/cut 4
pair_modify mix arithmetic shift yes                 # shifted wo/ analytic tail correction
pair_coeff 1 1 1 1
pair_coeff 1 2 1.16275534829989 1.1
pair_coeff 2 2 0.8 1.2

#################### SETTINGS ####################
group 1 type 1
250 atoms in group 1
group 2 type 2
250 atoms in group 2
variable numgroup1 equal count(1)
variable numgroup2 equal count(2)

neighbor 0.5 bin
neigh_modify every 2 delay 0 check yes

timestep 0.001
reset_timestep 0
run_style verlet

min_style cg
minimize 1.0e-6 1.0e-6 10000 100000
  update every 1 steps, delay 0 steps, check yes
Step Temp E_pair E_mol TotEng Press
0            0 2.5157259e+10            0 2.5157259e+10 6.3684768e+10
Loop time of 0.478832 on 6 procs for 859 steps with 500 atoms

Minimization stats:
  Stopping criterion = energy tolerance
  Energy initial, next-to-last, final =
  Force two-norm initial, final = 1.99293e+15 0.907817
  Force max component initial, final = 1.40448e+15 0.182765
  Final line search alpha, max atom move = 0.260323 0.047578
  Iterations, force evaluations = 859 1704

reset_timestep 0

#################### 1) Initializing in NVT ensemble ####################
velocity all create 0.65 2234

fix integrate all nvt temp 0.65 0.65 0.1
run 200000
Step Temp E_pair E_mol TotEng Press
0         0.65   -7.2475124            0   -6.2744624   -1.2690676
Averages over the last 11 of 21 rows, steps 100000 to 200000:
Temp E_pair E_mol TotEng Press
0.657153 -6.0975 0 -5.11374 0.110207
Loop time of 39.9239 on 6 procs for 200000 steps with 500 atoms

unfix integrate
fix integrate all nvt temp 0.65 0.65 1.0

run 200000
Step Temp E_pair E_mol TotEng Press
200000   0.67633125     -6.09172            0   -5.0792522  0.089568652
Averages over the last 11 of 21 rows, steps 300000 to 400000:
Temp E_pair E_mol TotEng Press
0.644649 -6.09911 0 -5.13407 0.0546048
Loop time of 40.3542 on 6 procs for 200000 steps with 500 atoms

reset_timestep 0

#################### 2) Equilibrating in NVT ensemble #####################

# Temperature of last configuration
variable T1 equal temp
fix Tave1 all ave/time 1000000 1 1000000 v_T1

# Kinetic energy of last configuration
variable KE1 equal ke
fix KEave1 all ave/time 1000000 1 1000000 v_KE1

# Potential energy of last configuration
variable PE1 equal pe
fix PEave1 all ave/time 1000000 1 1000000 v_PE1

run 1000000
Step Temp E_pair E_mol TotEng Press
0   0.64313782   -6.0577648            0   -5.0949875   0.25596686
Averages over the last 51 of 101 rows, steps 500000 to 1000000:
Temp E_pair E_mol TotEng Press
0.654431 -6.1057 0 -5.12602 0.0663774
Loop time of 199.977 on 6 procs for 1000000 steps with 500 atoms
